*8-bit adder RCA

.subckt FA a b ci s co
Xna1 a b 1 nand2
Xna2 a 1 2 nand2
Xna3 b 1 3 nand2
Xna4 2 3 4 nand2
Xna5 4 ci 5 nand2
Xna6 4 5 6 nand2
Xna7 5 ci 7 nand2
Xna8 6 7 s nand2
Xna9 1 5 co nand2
.ends

.subckt RCA8 A[7:0] B[7:0] Ci co s[7:0]
Xfa A[0] B[0] Ci s[0] c[0] FA
Xfa2 A[7:1] B[7:1] c[6:0] s[7:1] c[7:1] FA
.connect c[7] co
.ends