*alt xor

.subckt altxor2 a b z
Xinv1 a ainv inverter
Xnand1 ainv b c nand2

Xinv2 b binv inverter
Xnand2 a binv d nand2

Xnand3 c d z nand2
.ends