*FULL ADDER
.subckt FA a b ci s co
Xna1 a b 1 nand2
Xna2 a 1 2 nand2
Xna3 b 1 3 nand2
Xna4 2 3 4 nand2
Xna5 4 ci 5 nand2
Xna6 4 5 6 nand2
Xna7 5 ci 7 nand2
Xna8 6 7 s nand2
Xna9 1 5 co nand2
.ends

*8-bit adder RCA
.subckt adder8 op0 A[7:0] B[7:0] s[7:0]
*for xb input
Xxor B[7:0] op[0]#8 xb[7:0] xor2

*output s
Xfa A[0] xb[0] op[0] s[0] c[0] FA
Xfa2 A[1:7] xb[1:7] c[0:6] s[1:7] c[1:7] FA

.ends